data_image0
_cell_length_a       6.6467
_cell_length_b       15.292
_cell_length_c       15.292
_cell_angle_alpha    62.0622
_cell_angle_beta     81.6694
_cell_angle_gamma    98.3306

_symmetry_space_group_name_H-M    "P 1"
_symmetry_int_tables_number       1

loop_
  _symmetry_equiv_pos_as_xyz
  'x, y, z'

loop_
  _atom_site_label
  _atom_site_occupancy
  _atom_site_fract_x
  _atom_site_fract_y
  _atom_site_fract_z
  _atom_site_thermal_displace_type
  _atom_site_B_iso_or_equiv
  _atom_site_type_symbol
  _atom_site_charge
  Zn1      1.0000 0.61590  0.31374  0.42501  Biso   1.000  Zn  0.984964
  Zn2      1.0000 0.04091  0.42501  0.26125  Biso   1.000  Zn  0.984964
  Zn3      1.0000 0.30216  0.26125  0.31374  Biso   1.000  Zn  0.984964
  Zn4      1.0000 0.38410  0.68626  0.57499  Biso   1.000  Zn  0.984964
  Zn5      1.0000 0.95909  0.57499  0.73875  Biso   1.000  Zn  0.984964
  Zn6      1.0000 0.69784  0.73875  0.68626  Biso   1.000  Zn  0.984964
  H1       1.0000 0.28253  0.44568  0.57426  Biso   1.000  H  0.110733
  H2       1.0000 0.85679  0.57426  0.98006  Biso   1.000  H  0.110733
  H3       1.0000 0.83685  0.98006  0.44568  Biso   1.000  H  0.110733
  H4       1.0000 0.71747  0.55432  0.42574  Biso   1.000  H  0.110733
  H5       1.0000 0.14321  0.42574  0.01994  Biso   1.000  H  0.110733
  H6       1.0000 0.16315  0.01994  0.55432  Biso   1.000  H  0.110733
  C1       1.0000 0.23674  0.39297  0.43485  Biso   1.000  C  0.629412
  C2       1.0000 0.11595  0.44559  0.46734  Biso   1.000  C  -0.159275
  C3       1.0000 0.94131  0.47304  0.42789  Biso   1.000  C  0.392298
  C4       1.0000 0.16778  0.46836  0.54438  Biso   1.000  C  -0.218589
  C5       1.0000 0.67159  0.43485  0.17218  Biso   1.000  C  0.629412
  C6       1.0000 0.58329  0.46734  0.08707  Biso   1.000  C  -0.159275
  C7       1.0000 0.36920  0.42789  0.09907  Biso   1.000  C  0.392298
  C8       1.0000 0.71216  0.54438  0.98726  Biso   1.000  C  -0.218589
  C9       1.0000 0.84377  0.17218  0.39297  Biso   1.000  C  0.629412
  C10      1.0000 0.67036  0.08707  0.44559  Biso   1.000  C  -0.159275
  C11      1.0000 0.46827  0.09907  0.47304  Biso   1.000  C  0.392298
  C12      1.0000 0.69942  0.98726  0.46836  Biso   1.000  C  -0.218589
  C13      1.0000 0.76326  0.60703  0.56515  Biso   1.000  C  0.629412
  C14      1.0000 0.88405  0.55441  0.53266  Biso   1.000  C  -0.159275
  C15      1.0000 0.05869  0.52696  0.57211  Biso   1.000  C  0.392298
  C16      1.0000 0.83222  0.53164  0.45562  Biso   1.000  C  -0.218589
  C17      1.0000 0.32841  0.56515  0.82782  Biso   1.000  C  0.629412
  C18      1.0000 0.41671  0.53266  0.91293  Biso   1.000  C  -0.159275
  C19      1.0000 0.63080  0.57211  0.90093  Biso   1.000  C  0.392298
  C20      1.0000 0.28784  0.45562  0.01274  Biso   1.000  C  -0.218589
  C21      1.0000 0.15623  0.82782  0.60703  Biso   1.000  C  0.629412
  C22      1.0000 0.32964  0.91293  0.55441  Biso   1.000  C  -0.159275
  C23      1.0000 0.53173  0.90093  0.52696  Biso   1.000  C  0.392298
  C24      1.0000 0.30058  0.01274  0.53164  Biso   1.000  C  -0.218589
  O1       1.0000 0.37818  0.35935  0.47917  Biso   1.000  O  -0.551190
  O2       1.0000 0.17541  0.36047  0.37838  Biso   1.000  O  -0.594490
  O3       1.0000 0.87041  0.43768  0.36649  Biso   1.000  O  -0.593864
  O4       1.0000 0.85735  0.47917  0.16148  Biso   1.000  O  -0.551190
  O5       1.0000 0.55379  0.37838  0.26115  Biso   1.000  O  -0.594490
  O6       1.0000 0.23690  0.36649  0.19583  Biso   1.000  O  -0.593864
  O7       1.0000 0.01883  0.16148  0.35935  Biso   1.000  O  -0.551190
  O8       1.0000 0.81494  0.26115  0.36047  Biso   1.000  O  -0.594490
  O9       1.0000 0.43273  0.19583  0.43768  Biso   1.000  O  -0.593864
  O10      1.0000 0.62182  0.64065  0.52083  Biso   1.000  O  -0.551190
  O11      1.0000 0.82459  0.63953  0.62162  Biso   1.000  O  -0.594490
  O12      1.0000 0.12959  0.56232  0.63351  Biso   1.000  O  -0.593864
  O13      1.0000 0.14265  0.52083  0.83852  Biso   1.000  O  -0.551190
  O14      1.0000 0.44621  0.62162  0.73885  Biso   1.000  O  -0.594490
  O15      1.0000 0.76310  0.63351  0.80417  Biso   1.000  O  -0.593864
  O16      1.0000 0.98117  0.83852  0.64065  Biso   1.000  O  -0.551190
  O17      1.0000 0.18506  0.73885  0.63953  Biso   1.000  O  -0.594490
  O18      1.0000 0.56727  0.80417  0.56232  Biso   1.000  O  -0.593864
